<?xml version="1.0" encoding="UTF-8"?>
<routes xmlns:xsi="http://www.w3.org/2001/XMLSchema-instance" xsi:noNamespaceSchemaLocation="http://sumo.dlr.de/xsd/routes_file.xsd">
    <vType id="veh_passenger" vClass="passenger"/>
    <flow id="lr" color="1,1,0"  begin="0" end= "7200" departLane="best" departSpeed="max" probability="1." type="veh_passenger">
        <route edges="gneE7 gneE10"/>
    </flow>
    <!--flow id="lu" color="1,1,0"  begin="0" end= "7200" probability="0.1" type="veh_passenger">
        <route edges="gneE7 gneE11"/>
    </flow-->
    <!--flow id="ld" color="1,1,0"  begin="0" end= "7200" probability="0.1" type="veh_passenger">
        <route edges="gneE7 gneE13"/>
    </flow-->
    <!--flow id="dr" color="1,1,0"  begin="0" end= "7200" probability="0.1" type="veh_passenger">
        <route edges="gneE14 gneE10"/>
    </flow-->
    <flow id="du" color="1,1,0"  begin="0" end= "7200" probability="0.4" type="veh_passenger">
        <route edges="gneE14 gneE11"/>
    </flow>
    <!--flow id="dl" color="1,1,0"  begin="0" end= "7200" probability="0.1" type="veh_passenger">
        <route edges="gneE14 gneE9"/>
    </flow-->
    <flow id="rl" color="1,1,0"  begin="0" end= "7200" departLane="best" departSpeed="max" probability="1." type="veh_passenger">
        <route edges="gneE8 gneE9"/>
    </flow>
    <!--flow id="ru" color="1,1,0"  begin="0" end= "7200" probability="0.1" type="veh_passenger">
        <route edges="gneE8 gneE11"/>
    </flow-->
    <!--flow id="rd" color="1,1,0"  begin="0" end= "7200" probability="0.1" type="veh_passenger">
        <route edges="gneE8 gneE13"/>
    </flow-->
    <!--flow id="ul" color="1,1,0"  begin="0" end= "7200" probability="0.1" type="veh_passenger">
        <route edges="gneE12 gneE9"/>
    </flow-->
    <!--flow id="ur" color="1,1,0"  begin="0" end= "7200" probability="0.1" type="veh_passenger">
        <route edges="gneE12 gneE10"/>
    </flow-->
    <flow id="ud" color="1,1,0"  begin="0" end= "7200" probability="0.4" type="veh_passenger">
        <route edges="gneE12 gneE13"/>
    </flow>
</routes>
